* The library for diode models

.model 1N4007 D (IS=76.9p RS=42.0m BV=1.00k IBV=5.00u CJO=26.5p  M=0.333 N=1.45 TT=4.32u)

.model 1N4148 D(IS=4.352E-9 N=1.906 BV=110 IBV=0.0001 RS=0.6458 CJO=7.048E-13 VJ=0.869 M=0.03 FC=0.5 TT=3.48E-9)

.model BAV21 D(IS=21.910E-9 N=2.2330 RS=1.0000E-3 IKF=19.230E-3 CJO=1.0300E-12 M=.1001 VJ=.75 ISR=10.010E-21 BV=293.10 IBV=1.2930E-3 TT=51.940E-9)
